[General]

description = "Multi OSPF routing test + BGP"
sim-time-limit = 2000s
output-scalar-file = results.sca
output-vector-file = results.vec
output-scalar-precision = 2
**.app[0].**.scalar-recording = false
**.scalar-recording = false
**.vector-recording = true
**.rsvp.procDelay = 1us
**.tcp.typename = "Tcp"
**.tcp.mss = 1024
**.tcp.advertisedWindow = 14336
**.tcp.tcpAlgorithmClass = "TcpReno"
**.ospfConfig = xmldoc("OSPFConfig.xml")
*.scenarioManager.script = xmldoc("scenario.xml")
*.visualizer.interfaceTableVisualizer.displayInterfaceTables = true
**.bgpConfig = xmldoc("BGPConfig.xml")
**.bgp.redistributeOspf = "E2"
**.ppp[*].ppp.queue.typename = "DropTailQueue"
**.ppp[*].ppp.queue.packetCapacity = 20
**.ppp[*].ppp.queue.dataCapacity = 102400b
**.HA97.numApps = 1
**.HA97.app[*].typename = "UdpBasicApp"
**.HA97.app[0].startTime = 100s
**.HA97.app[0].localPort = 1234
**.HA97.app[0].destPort = 5678
**.HA97.app[0].messageLength = 1024 bytes
**.HA97.app[0].sendInterval = 3 ms
**.HA97.app[0].destAddresses = "172.147.4.1"

**.HA137.numApps = 1
**.HA137.app[*].typename = "UdpSink"
**.HA137.app[0].localPort = 5678

**.HA66.numApps = 1
**.HA66.app[*].typename = "UdpBasicApp"
**.HA66.app[0].startTime = 100s
**.HA66.app[0].localPort = 1234
**.HA66.app[0].destPort = 5678
**.HA66.app[0].messageLength = 1024 bytes
**.HA66.app[0].sendInterval = 3 ms
**.HA66.app[0].destAddresses = "172.46.4.1"

**.HA36.numApps = 1
**.HA36.app[*].typename = "UdpSink"
**.HA36.app[0].localPort = 5678

**.HA98.numApps = 1
**.HA98.app[*].typename = "UdpBasicApp"
**.HA98.app[0].startTime = 100s
**.HA98.app[0].localPort = 1234
**.HA98.app[0].destPort = 5678
**.HA98.app[0].messageLength = 1024 bytes
**.HA98.app[0].sendInterval = 3 ms
**.HA98.app[0].destAddresses = "172.93.4.1"

**.HA83.numApps = 1
**.HA83.app[*].typename = "UdpSink"
**.HA83.app[0].localPort = 5678

**.HA102.numApps = 1
**.HA102.app[*].typename = "UdpBasicApp"
**.HA102.app[0].startTime = 100s
**.HA102.app[0].localPort = 1234
**.HA102.app[0].destPort = 5678
**.HA102.app[0].messageLength = 1024 bytes
**.HA102.app[0].sendInterval = 3 ms
**.HA102.app[0].destAddresses = "172.73.4.1"

**.HA63.numApps = 1
**.HA63.app[*].typename = "UdpSink"
**.HA63.app[0].localPort = 5678

**.HA38.numApps = 1
**.HA38.app[*].typename = "UdpBasicApp"
**.HA38.app[0].startTime = 100s
**.HA38.app[0].localPort = 1234
**.HA38.app[0].destPort = 5678
**.HA38.app[0].messageLength = 1024 bytes
**.HA38.app[0].sendInterval = 3 ms
**.HA38.app[0].destAddresses = "172.41.4.1"

**.HA31.numApps = 1
**.HA31.app[*].typename = "UdpSink"
**.HA31.app[0].localPort = 5678

**.HA167.numApps = 1
**.HA167.app[*].typename = "UdpBasicApp"
**.HA167.app[0].startTime = 100s
**.HA167.app[0].localPort = 1234
**.HA167.app[0].destPort = 5678
**.HA167.app[0].messageLength = 1024 bytes
**.HA167.app[0].sendInterval = 3 ms
**.HA167.app[0].destAddresses = "172.44.4.1"

**.HA34.numApps = 1
**.HA34.app[*].typename = "UdpSink"
**.HA34.app[0].localPort = 5678

**.HA26.numApps = 1
**.HA26.app[*].typename = "UdpBasicApp"
**.HA26.app[0].startTime = 100s
**.HA26.app[0].localPort = 1234
**.HA26.app[0].destPort = 5678
**.HA26.app[0].messageLength = 1024 bytes
**.HA26.app[0].sendInterval = 3 ms
**.HA26.app[0].destAddresses = "172.98.4.1"

**.HA88.numApps = 1
**.HA88.app[*].typename = "UdpSink"
**.HA88.app[0].localPort = 5678

**.HA57.numApps = 1
**.HA57.app[*].typename = "UdpBasicApp"
**.HA57.app[0].startTime = 100s
**.HA57.app[0].localPort = 1234
**.HA57.app[0].destPort = 5678
**.HA57.app[0].messageLength = 1024 bytes
**.HA57.app[0].sendInterval = 3 ms
**.HA57.app[0].destAddresses = "172.34.4.1"

**.HA24.numApps = 1
**.HA24.app[*].typename = "UdpSink"
**.HA24.app[0].localPort = 5678

**.HA14.numApps = 1
**.HA14.app[*].typename = "UdpBasicApp"
**.HA14.app[0].startTime = 100s
**.HA14.app[0].localPort = 1234
**.HA14.app[0].destPort = 5678
**.HA14.app[0].messageLength = 1024 bytes
**.HA14.app[0].sendInterval = 3 ms
**.HA14.app[0].destAddresses = "172.88.4.1"

**.HA78.numApps = 1
**.HA78.app[*].typename = "UdpSink"
**.HA78.app[0].localPort = 5678

**.HA11.numApps = 1
**.HA11.app[*].typename = "UdpBasicApp"
**.HA11.app[0].startTime = 100s
**.HA11.app[0].localPort = 1234
**.HA11.app[0].destPort = 5678
**.HA11.app[0].messageLength = 1024 bytes
**.HA11.app[0].sendInterval = 3 ms
**.HA11.app[0].destAddresses = "172.49.4.1"

**.HA39.numApps = 1
**.HA39.app[*].typename = "UdpSink"
**.HA39.app[0].localPort = 5678

**.HA5.numApps = 1
**.HA5.app[*].typename = "UdpBasicApp"
**.HA5.app[0].startTime = 100s
**.HA5.app[0].localPort = 1234
**.HA5.app[0].destPort = 5678
**.HA5.app[0].messageLength = 1024 bytes
**.HA5.app[0].sendInterval = 3 ms
**.HA5.app[0].destAddresses = "172.70.4.1"

**.HA60.numApps = 1
**.HA60.app[*].typename = "UdpSink"
**.HA60.app[0].localPort = 5678

**.HA139.numApps = 1
**.HA139.app[*].typename = "UdpBasicApp"
**.HA139.app[0].startTime = 100s
**.HA139.app[0].localPort = 1234
**.HA139.app[0].destPort = 5678
**.HA139.app[0].messageLength = 1024 bytes
**.HA139.app[0].sendInterval = 3 ms
**.HA139.app[0].destAddresses = "172.178.4.1"

**.HA168.numApps = 1
**.HA168.app[*].typename = "UdpSink"
**.HA168.app[0].localPort = 5678

**.HA95.numApps = 1
**.HA95.app[*].typename = "UdpBasicApp"
**.HA95.app[0].startTime = 100s
**.HA95.app[0].localPort = 1234
**.HA95.app[0].destPort = 5678
**.HA95.app[0].messageLength = 1024 bytes
**.HA95.app[0].sendInterval = 3 ms
**.HA95.app[0].destAddresses = "172.14.4.1"

**.HA4.numApps = 1
**.HA4.app[*].typename = "UdpSink"
**.HA4.app[0].localPort = 5678

**.HA129.numApps = 1
**.HA129.app[*].typename = "UdpBasicApp"
**.HA129.app[0].startTime = 100s
**.HA129.app[0].localPort = 1234
**.HA129.app[0].destPort = 5678
**.HA129.app[0].messageLength = 1024 bytes
**.HA129.app[0].sendInterval = 3 ms
**.HA129.app[0].destAddresses = "172.176.4.1"

**.HA166.numApps = 1
**.HA166.app[*].typename = "UdpSink"
**.HA166.app[0].localPort = 5678

**.HA53.numApps = 1
**.HA53.app[*].typename = "UdpBasicApp"
**.HA53.app[0].startTime = 100s
**.HA53.app[0].localPort = 1234
**.HA53.app[0].destPort = 5678
**.HA53.app[0].messageLength = 1024 bytes
**.HA53.app[0].sendInterval = 3 ms
**.HA53.app[0].destAddresses = "172.181.4.1"

**.HA171.numApps = 1
**.HA171.app[*].typename = "UdpSink"
**.HA171.app[0].localPort = 5678

**.HA29.numApps = 1
**.HA29.app[*].typename = "UdpBasicApp"
**.HA29.app[0].startTime = 100s
**.HA29.app[0].localPort = 1234
**.HA29.app[0].destPort = 5678
**.HA29.app[0].messageLength = 1024 bytes
**.HA29.app[0].sendInterval = 3 ms
**.HA29.app[0].destAddresses = "172.157.4.1"

**.HA147.numApps = 1
**.HA147.app[*].typename = "UdpSink"
**.HA147.app[0].localPort = 5678

**.HA28.numApps = 1
**.HA28.app[*].typename = "UdpBasicApp"
**.HA28.app[0].startTime = 100s
**.HA28.app[0].localPort = 1234
**.HA28.app[0].destPort = 5678
**.HA28.app[0].messageLength = 1024 bytes
**.HA28.app[0].sendInterval = 3 ms
**.HA28.app[0].destAddresses = "172.16.4.1"

**.HA6.numApps = 1
**.HA6.app[*].typename = "UdpSink"
**.HA6.app[0].localPort = 5678

**.HA23.numApps = 1
**.HA23.app[*].typename = "UdpBasicApp"
**.HA23.app[0].startTime = 100s
**.HA23.app[0].localPort = 1234
**.HA23.app[0].destPort = 5678
**.HA23.app[0].messageLength = 1024 bytes
**.HA23.app[0].sendInterval = 3 ms
**.HA23.app[0].destAddresses = "172.75.4.1"

**.HA65.numApps = 1
**.HA65.app[*].typename = "UdpSink"
**.HA65.app[0].localPort = 5678

**.HA131.numApps = 1
**.HA131.app[*].typename = "UdpBasicApp"
**.HA131.app[0].startTime = 100s
**.HA131.app[0].localPort = 1234
**.HA131.app[0].destPort = 5678
**.HA131.app[0].messageLength = 1024 bytes
**.HA131.app[0].sendInterval = 3 ms
**.HA131.app[0].destAddresses = "172.144.4.1"

**.HA134.numApps = 1
**.HA134.app[*].typename = "UdpSink"
**.HA134.app[0].localPort = 5678

**.HA15.numApps = 1
**.HA15.app[*].typename = "UdpBasicApp"
**.HA15.app[0].startTime = 100s
**.HA15.app[0].localPort = 1234
**.HA15.app[0].destPort = 5678
**.HA15.app[0].messageLength = 1024 bytes
**.HA15.app[0].sendInterval = 3 ms
**.HA15.app[0].destAddresses = "172.11.4.1"

**.HA1.numApps = 1
**.HA1.app[*].typename = "UdpSink"
**.HA1.app[0].localPort = 5678

**.HA163.numApps = 1
**.HA163.app[*].typename = "UdpBasicApp"
**.HA163.app[0].startTime = 100s
**.HA163.app[0].localPort = 1234
**.HA163.app[0].destPort = 5678
**.HA163.app[0].messageLength = 1024 bytes
**.HA163.app[0].sendInterval = 3 ms
**.HA163.app[0].destAddresses = "172.54.4.1"

**.HA44.numApps = 1
**.HA44.app[*].typename = "UdpSink"
**.HA44.app[0].localPort = 5678

**.HA127.numApps = 1
**.HA127.app[*].typename = "UdpBasicApp"
**.HA127.app[0].startTime = 100s
**.HA127.app[0].localPort = 1234
**.HA127.app[0].destPort = 5678
**.HA127.app[0].messageLength = 1024 bytes
**.HA127.app[0].sendInterval = 3 ms
**.HA127.app[0].destAddresses = "172.158.4.1"

**.HA148.numApps = 1
**.HA148.app[*].typename = "UdpSink"
**.HA148.app[0].localPort = 5678

**.HA75.numApps = 1
**.HA75.app[*].typename = "UdpBasicApp"
**.HA75.app[0].startTime = 100s
**.HA75.app[0].localPort = 1234
**.HA75.app[0].destPort = 5678
**.HA75.app[0].messageLength = 1024 bytes
**.HA75.app[0].sendInterval = 3 ms
**.HA75.app[0].destAddresses = "172.180.4.1"

**.HA170.numApps = 1
**.HA170.app[*].typename = "UdpSink"
**.HA170.app[0].localPort = 5678

**.HA84.numApps = 1
**.HA84.app[*].typename = "UdpBasicApp"
**.HA84.app[0].startTime = 100s
**.HA84.app[0].localPort = 1234
**.HA84.app[0].destPort = 5678
**.HA84.app[0].messageLength = 1024 bytes
**.HA84.app[0].sendInterval = 3 ms
**.HA84.app[0].destAddresses = "172.18.4.1"

**.HA8.numApps = 1
**.HA8.app[*].typename = "UdpSink"
**.HA8.app[0].localPort = 5678

**.HA33.numApps = 1
**.HA33.app[*].typename = "UdpBasicApp"
**.HA33.app[0].startTime = 100s
**.HA33.app[0].localPort = 1234
**.HA33.app[0].destPort = 5678
**.HA33.app[0].messageLength = 1024 bytes
**.HA33.app[0].sendInterval = 3 ms
**.HA33.app[0].destAddresses = "172.159.4.1"

**.HA149.numApps = 1
**.HA149.app[*].typename = "UdpSink"
**.HA149.app[0].localPort = 5678

**.HA50.numApps = 1
**.HA50.app[*].typename = "UdpBasicApp"
**.HA50.app[0].startTime = 100s
**.HA50.app[0].localPort = 1234
**.HA50.app[0].destPort = 5678
**.HA50.app[0].messageLength = 1024 bytes
**.HA50.app[0].sendInterval = 3 ms
**.HA50.app[0].destAddresses = "172.168.4.1"

**.HA158.numApps = 1
**.HA158.app[*].typename = "UdpSink"
**.HA158.app[0].localPort = 5678

**.HA125.numApps = 1
**.HA125.app[*].typename = "UdpBasicApp"
**.HA125.app[0].startTime = 100s
**.HA125.app[0].localPort = 1234
**.HA125.app[0].destPort = 5678
**.HA125.app[0].messageLength = 1024 bytes
**.HA125.app[0].sendInterval = 3 ms
**.HA125.app[0].destAddresses = "172.78.4.1"

**.HA68.numApps = 1
**.HA68.app[*].typename = "UdpSink"
**.HA68.app[0].localPort = 5678

**.HA94.numApps = 1
**.HA94.app[*].typename = "UdpBasicApp"
**.HA94.app[0].startTime = 100s
**.HA94.app[0].localPort = 1234
**.HA94.app[0].destPort = 5678
**.HA94.app[0].messageLength = 1024 bytes
**.HA94.app[0].sendInterval = 3 ms
**.HA94.app[0].destAddresses = "172.164.4.1"

**.HA154.numApps = 1
**.HA154.app[*].typename = "UdpSink"
**.HA154.app[0].localPort = 5678

**.HA73.numApps = 1
**.HA73.app[*].typename = "UdpBasicApp"
**.HA73.app[0].startTime = 100s
**.HA73.app[0].localPort = 1234
**.HA73.app[0].destPort = 5678
**.HA73.app[0].messageLength = 1024 bytes
**.HA73.app[0].sendInterval = 3 ms
**.HA73.app[0].destAddresses = "172.82.4.1"

**.HA72.numApps = 1
**.HA72.app[*].typename = "UdpSink"
**.HA72.app[0].localPort = 5678

**.HA56.numApps = 1
**.HA56.app[*].typename = "UdpBasicApp"
**.HA56.app[0].startTime = 100s
**.HA56.app[0].localPort = 1234
**.HA56.app[0].destPort = 5678
**.HA56.app[0].messageLength = 1024 bytes
**.HA56.app[0].sendInterval = 3 ms
**.HA56.app[0].destAddresses = "172.65.4.1"

**.HA55.numApps = 1
**.HA55.app[*].typename = "UdpSink"
**.HA55.app[0].localPort = 5678

**.HA159.numApps = 1
**.HA159.app[*].typename = "UdpBasicApp"
**.HA159.app[0].startTime = 100s
**.HA159.app[0].localPort = 1234
**.HA159.app[0].destPort = 5678
**.HA159.app[0].messageLength = 1024 bytes
**.HA159.app[0].sendInterval = 3 ms
**.HA159.app[0].destAddresses = "172.17.4.1"

**.HA7.numApps = 1
**.HA7.app[*].typename = "UdpSink"
**.HA7.app[0].localPort = 5678

**.HA10.numApps = 1
**.HA10.app[*].typename = "UdpBasicApp"
**.HA10.app[0].startTime = 100s
**.HA10.app[0].localPort = 1234
**.HA10.app[0].destPort = 5678
**.HA10.app[0].messageLength = 1024 bytes
**.HA10.app[0].sendInterval = 3 ms
**.HA10.app[0].destAddresses = "172.136.4.1"

**.HA126.numApps = 1
**.HA126.app[*].typename = "UdpSink"
**.HA126.app[0].localPort = 5678

**.HA32.numApps = 1
**.HA32.app[*].typename = "UdpBasicApp"
**.HA32.app[0].startTime = 100s
**.HA32.app[0].localPort = 1234
**.HA32.app[0].destPort = 5678
**.HA32.app[0].messageLength = 1024 bytes
**.HA32.app[0].sendInterval = 3 ms
**.HA32.app[0].destAddresses = "172.101.4.1"

**.HA91.numApps = 1
**.HA91.app[*].typename = "UdpSink"
**.HA91.app[0].localPort = 5678

**.HA92.numApps = 1
**.HA92.app[*].typename = "UdpBasicApp"
**.HA92.app[0].startTime = 100s
**.HA92.app[0].localPort = 1234
**.HA92.app[0].destPort = 5678
**.HA92.app[0].messageLength = 1024 bytes
**.HA92.app[0].sendInterval = 3 ms
**.HA92.app[0].destAddresses = "172.156.4.1"

**.HA146.numApps = 1
**.HA146.app[*].typename = "UdpSink"
**.HA146.app[0].localPort = 5678

**.HA21.numApps = 1
**.HA21.app[*].typename = "UdpBasicApp"
**.HA21.app[0].startTime = 100s
**.HA21.app[0].localPort = 1234
**.HA21.app[0].destPort = 5678
**.HA21.app[0].messageLength = 1024 bytes
**.HA21.app[0].sendInterval = 3 ms
**.HA21.app[0].destAddresses = "172.29.4.1"

**.HA19.numApps = 1
**.HA19.app[*].typename = "UdpSink"
**.HA19.app[0].localPort = 5678

**.HA30.numApps = 1
**.HA30.app[*].typename = "UdpBasicApp"
**.HA30.app[0].startTime = 100s
**.HA30.app[0].localPort = 1234
**.HA30.app[0].destPort = 5678
**.HA30.app[0].messageLength = 1024 bytes
**.HA30.app[0].sendInterval = 3 ms
**.HA30.app[0].destAddresses = "172.163.4.1"

**.HA153.numApps = 1
**.HA153.app[*].typename = "UdpSink"
**.HA153.app[0].localPort = 5678

**.HA93.numApps = 1
**.HA93.app[*].typename = "UdpBasicApp"
**.HA93.app[0].startTime = 100s
**.HA93.app[0].localPort = 1234
**.HA93.app[0].destPort = 5678
**.HA93.app[0].messageLength = 1024 bytes
**.HA93.app[0].sendInterval = 3 ms
**.HA93.app[0].destAddresses = "172.32.4.1"

**.HA22.numApps = 1
**.HA22.app[*].typename = "UdpSink"
**.HA22.app[0].localPort = 5678

**.HA13.numApps = 1
**.HA13.app[*].typename = "UdpBasicApp"
**.HA13.app[0].startTime = 100s
**.HA13.app[0].localPort = 1234
**.HA13.app[0].destPort = 5678
**.HA13.app[0].messageLength = 1024 bytes
**.HA13.app[0].sendInterval = 3 ms
**.HA13.app[0].destAddresses = "172.71.4.1"

**.HA61.numApps = 1
**.HA61.app[*].typename = "UdpSink"
**.HA61.app[0].localPort = 5678

**.HA81.numApps = 1
**.HA81.app[*].typename = "UdpBasicApp"
**.HA81.app[0].startTime = 100s
**.HA81.app[0].localPort = 1234
**.HA81.app[0].destPort = 5678
**.HA81.app[0].messageLength = 1024 bytes
**.HA81.app[0].sendInterval = 3 ms
**.HA81.app[0].destAddresses = "172.161.4.1"

**.HA151.numApps = 1
**.HA151.app[*].typename = "UdpSink"
**.HA151.app[0].localPort = 5678

**.HA161.numApps = 1
**.HA161.app[*].typename = "UdpBasicApp"
**.HA161.app[0].startTime = 100s
**.HA161.app[0].localPort = 1234
**.HA161.app[0].destPort = 5678
**.HA161.app[0].messageLength = 1024 bytes
**.HA161.app[0].sendInterval = 3 ms
**.HA161.app[0].destAddresses = "172.59.4.1"

**.HA49.numApps = 1
**.HA49.app[*].typename = "UdpSink"
**.HA49.app[0].localPort = 5678

**.HA43.numApps = 1
**.HA43.app[*].typename = "UdpBasicApp"
**.HA43.app[0].startTime = 100s
**.HA43.app[0].localPort = 1234
**.HA43.app[0].destPort = 5678
**.HA43.app[0].messageLength = 1024 bytes
**.HA43.app[0].sendInterval = 3 ms
**.HA43.app[0].destAddresses = "172.37.4.1"

**.HA27.numApps = 1
**.HA27.app[*].typename = "UdpSink"
**.HA27.app[0].localPort = 5678

**.HA77.numApps = 1
**.HA77.app[*].typename = "UdpBasicApp"
**.HA77.app[0].startTime = 100s
**.HA77.app[0].localPort = 1234
**.HA77.app[0].destPort = 5678
**.HA77.app[0].messageLength = 1024 bytes
**.HA77.app[0].sendInterval = 3 ms
**.HA77.app[0].destAddresses = "172.28.4.1"

**.HA18.numApps = 1
**.HA18.app[*].typename = "UdpSink"
**.HA18.app[0].localPort = 5678

**.HA162.numApps = 1
**.HA162.app[*].typename = "UdpBasicApp"
**.HA162.app[0].startTime = 100s
**.HA162.app[0].localPort = 1234
**.HA162.app[0].destPort = 5678
**.HA162.app[0].messageLength = 1024 bytes
**.HA162.app[0].sendInterval = 3 ms
**.HA162.app[0].destAddresses = "172.77.4.1"

**.HA67.numApps = 1
**.HA67.app[*].typename = "UdpSink"
**.HA67.app[0].localPort = 5678

**.HA35.numApps = 1
**.HA35.app[*].typename = "UdpBasicApp"
**.HA35.app[0].startTime = 100s
**.HA35.app[0].localPort = 1234
**.HA35.app[0].destPort = 5678
**.HA35.app[0].messageLength = 1024 bytes
**.HA35.app[0].sendInterval = 3 ms
**.HA35.app[0].destAddresses = "172.61.4.1"

**.HA51.numApps = 1
**.HA51.app[*].typename = "UdpSink"
**.HA51.app[0].localPort = 5678

**.HA54.numApps = 1
**.HA54.app[*].typename = "UdpBasicApp"
**.HA54.app[0].startTime = 100s
**.HA54.app[0].localPort = 1234
**.HA54.app[0].destPort = 5678
**.HA54.app[0].messageLength = 1024 bytes
**.HA54.app[0].sendInterval = 3 ms
**.HA54.app[0].destAddresses = "172.151.4.1"

**.HA141.numApps = 1
**.HA141.app[*].typename = "UdpSink"
**.HA141.app[0].localPort = 5678

**.HA114.numApps = 1
**.HA114.app[*].typename = "UdpBasicApp"
**.HA114.app[0].startTime = 100s
**.HA114.app[0].localPort = 1234
**.HA114.app[0].destPort = 5678
**.HA114.app[0].messageLength = 1024 bytes
**.HA114.app[0].sendInterval = 3 ms
**.HA114.app[0].destAddresses = "172.12.4.1"

**.HA2.numApps = 1
**.HA2.app[*].typename = "UdpSink"
**.HA2.app[0].localPort = 5678

**.HA80.numApps = 1
**.HA80.app[*].typename = "UdpBasicApp"
**.HA80.app[0].startTime = 100s
**.HA80.app[0].localPort = 1234
**.HA80.app[0].destPort = 5678
**.HA80.app[0].messageLength = 1024 bytes
**.HA80.app[0].sendInterval = 3 ms
**.HA80.app[0].destAddresses = "172.57.4.1"

**.HA47.numApps = 1
**.HA47.app[*].typename = "UdpSink"
**.HA47.app[0].localPort = 5678

**.HA160.numApps = 1
**.HA160.app[*].typename = "UdpBasicApp"
**.HA160.app[0].startTime = 100s
**.HA160.app[0].localPort = 1234
**.HA160.app[0].destPort = 5678
**.HA160.app[0].messageLength = 1024 bytes
**.HA160.app[0].sendInterval = 3 ms
**.HA160.app[0].destAddresses = "172.148.4.1"

**.HA138.numApps = 1
**.HA138.app[*].typename = "UdpSink"
**.HA138.app[0].localPort = 5678

**.HA37.numApps = 1
**.HA37.app[*].typename = "UdpBasicApp"
**.HA37.app[0].startTime = 100s
**.HA37.app[0].localPort = 1234
**.HA37.app[0].destPort = 5678
**.HA37.app[0].messageLength = 1024 bytes
**.HA37.app[0].sendInterval = 3 ms
**.HA37.app[0].destAddresses = "172.69.4.1"

**.HA59.numApps = 1
**.HA59.app[*].typename = "UdpSink"
**.HA59.app[0].localPort = 5678

**.HA0.numApps = 1
**.HA0.app[*].typename = "UdpBasicApp"
**.HA0.app[0].startTime = 100s
**.HA0.app[0].localPort = 1234
**.HA0.app[0].destPort = 5678
**.HA0.app[0].messageLength = 1024 bytes
**.HA0.app[0].sendInterval = 3 ms
**.HA0.app[0].destAddresses = "172.143.4.1"

**.HA133.numApps = 1
**.HA133.app[*].typename = "UdpSink"
**.HA133.app[0].localPort = 5678

**.HA3.numApps = 1
**.HA3.app[*].typename = "UdpBasicApp"
**.HA3.app[0].startTime = 100s
**.HA3.app[0].localPort = 1234
**.HA3.app[0].destPort = 5678
**.HA3.app[0].messageLength = 1024 bytes
**.HA3.app[0].sendInterval = 3 ms
**.HA3.app[0].destAddresses = "172.145.4.1"

**.HA135.numApps = 1
**.HA135.app[*].typename = "UdpSink"
**.HA135.app[0].localPort = 5678

**.HA9.numApps = 1
**.HA9.app[*].typename = "UdpBasicApp"
**.HA9.app[0].startTime = 100s
**.HA9.app[0].localPort = 1234
**.HA9.app[0].destPort = 5678
**.HA9.app[0].messageLength = 1024 bytes
**.HA9.app[0].sendInterval = 3 ms
**.HA9.app[0].destAddresses = "172.146.4.1"

**.HA136.numApps = 1
**.HA136.app[*].typename = "UdpSink"
**.HA136.app[0].localPort = 5678

**.HA12.numApps = 1
**.HA12.app[*].typename = "UdpBasicApp"
**.HA12.app[0].startTime = 100s
**.HA12.app[0].localPort = 1234
**.HA12.app[0].destPort = 5678
**.HA12.app[0].messageLength = 1024 bytes
**.HA12.app[0].sendInterval = 3 ms
**.HA12.app[0].destAddresses = "172.150.4.1"

**.HA140.numApps = 1
**.HA140.app[*].typename = "UdpSink"
**.HA140.app[0].localPort = 5678

**.HA16.numApps = 1
**.HA16.app[*].typename = "UdpBasicApp"
**.HA16.app[0].startTime = 100s
**.HA16.app[0].localPort = 1234
**.HA16.app[0].destPort = 5678
**.HA16.app[0].messageLength = 1024 bytes
**.HA16.app[0].sendInterval = 3 ms
**.HA16.app[0].destAddresses = "172.152.4.1"

**.HA142.numApps = 1
**.HA142.app[*].typename = "UdpSink"
**.HA142.app[0].localPort = 5678

**.HA17.numApps = 1
**.HA17.app[*].typename = "UdpBasicApp"
**.HA17.app[0].startTime = 100s
**.HA17.app[0].localPort = 1234
**.HA17.app[0].destPort = 5678
**.HA17.app[0].messageLength = 1024 bytes
**.HA17.app[0].sendInterval = 3 ms
**.HA17.app[0].destAddresses = "172.153.4.1"

**.HA143.numApps = 1
**.HA143.app[*].typename = "UdpSink"
**.HA143.app[0].localPort = 5678

**.HA20.numApps = 1
**.HA20.app[*].typename = "UdpBasicApp"
**.HA20.app[0].startTime = 100s
**.HA20.app[0].localPort = 1234
**.HA20.app[0].destPort = 5678
**.HA20.app[0].messageLength = 1024 bytes
**.HA20.app[0].sendInterval = 3 ms
**.HA20.app[0].destAddresses = "172.154.4.1"

**.HA144.numApps = 1
**.HA144.app[*].typename = "UdpSink"
**.HA144.app[0].localPort = 5678

**.HA25.numApps = 1
**.HA25.app[*].typename = "UdpBasicApp"
**.HA25.app[0].startTime = 100s
**.HA25.app[0].localPort = 1234
**.HA25.app[0].destPort = 5678
**.HA25.app[0].messageLength = 1024 bytes
**.HA25.app[0].sendInterval = 3 ms
**.HA25.app[0].destAddresses = "172.155.4.1"

**.HA145.numApps = 1
**.HA145.app[*].typename = "UdpSink"
**.HA145.app[0].localPort = 5678

**.HA40.numApps = 1
**.HA40.app[*].typename = "UdpBasicApp"
**.HA40.app[0].startTime = 100s
**.HA40.app[0].localPort = 1234
**.HA40.app[0].destPort = 5678
**.HA40.app[0].messageLength = 1024 bytes
**.HA40.app[0].sendInterval = 3 ms
**.HA40.app[0].destAddresses = "172.160.4.1"

**.HA150.numApps = 1
**.HA150.app[*].typename = "UdpSink"
**.HA150.app[0].localPort = 5678

**.HA48.numApps = 1
**.HA48.app[*].typename = "UdpBasicApp"
**.HA48.app[0].startTime = 100s
**.HA48.app[0].localPort = 1234
**.HA48.app[0].destPort = 5678
**.HA48.app[0].messageLength = 1024 bytes
**.HA48.app[0].sendInterval = 3 ms
**.HA48.app[0].destAddresses = "172.162.4.1"

**.HA152.numApps = 1
**.HA152.app[*].typename = "UdpSink"
**.HA152.app[0].localPort = 5678

**.HA52.numApps = 1
**.HA52.app[*].typename = "UdpBasicApp"
**.HA52.app[0].startTime = 100s
**.HA52.app[0].localPort = 1234
**.HA52.app[0].destPort = 5678
**.HA52.app[0].messageLength = 1024 bytes
**.HA52.app[0].sendInterval = 3 ms
**.HA52.app[0].destAddresses = "172.165.4.1"

**.HA155.numApps = 1
**.HA155.app[*].typename = "UdpSink"
**.HA155.app[0].localPort = 5678

**.HA58.numApps = 1
**.HA58.app[*].typename = "UdpBasicApp"
**.HA58.app[0].startTime = 100s
**.HA58.app[0].localPort = 1234
**.HA58.app[0].destPort = 5678
**.HA58.app[0].messageLength = 1024 bytes
**.HA58.app[0].sendInterval = 3 ms
**.HA58.app[0].destAddresses = "172.166.4.1"

**.HA156.numApps = 1
**.HA156.app[*].typename = "UdpSink"
**.HA156.app[0].localPort = 5678

**.HA62.numApps = 1
**.HA62.app[*].typename = "UdpBasicApp"
**.HA62.app[0].startTime = 100s
**.HA62.app[0].localPort = 1234
**.HA62.app[0].destPort = 5678
**.HA62.app[0].messageLength = 1024 bytes
**.HA62.app[0].sendInterval = 3 ms
**.HA62.app[0].destAddresses = "172.167.4.1"

**.HA157.numApps = 1
**.HA157.app[*].typename = "UdpSink"
**.HA157.app[0].localPort = 5678

**.HA64.numApps = 1
**.HA64.app[*].typename = "UdpBasicApp"
**.HA64.app[0].startTime = 100s
**.HA64.app[0].localPort = 1234
**.HA64.app[0].destPort = 5678
**.HA64.app[0].messageLength = 1024 bytes
**.HA64.app[0].sendInterval = 3 ms
**.HA64.app[0].destAddresses = "172.174.4.1"

**.HA164.numApps = 1
**.HA164.app[*].typename = "UdpSink"
**.HA164.app[0].localPort = 5678

**.HA69.numApps = 1
**.HA69.app[*].typename = "UdpBasicApp"
**.HA69.app[0].startTime = 100s
**.HA69.app[0].localPort = 1234
**.HA69.app[0].destPort = 5678
**.HA69.app[0].messageLength = 1024 bytes
**.HA69.app[0].sendInterval = 3 ms
**.HA69.app[0].destAddresses = "172.175.4.1"

**.HA165.numApps = 1
**.HA165.app[*].typename = "UdpSink"
**.HA165.app[0].localPort = 5678

**.HA70.numApps = 1
**.HA70.app[*].typename = "UdpBasicApp"
**.HA70.app[0].startTime = 100s
**.HA70.app[0].localPort = 1234
**.HA70.app[0].destPort = 5678
**.HA70.app[0].messageLength = 1024 bytes
**.HA70.app[0].sendInterval = 3 ms
**.HA70.app[0].destAddresses = "172.179.4.1"

**.HA169.numApps = 1
**.HA169.app[*].typename = "UdpSink"
**.HA169.app[0].localPort = 5678

**.HA71.numApps = 1
**.HA71.app[*].typename = "UdpBasicApp"
**.HA71.app[0].startTime = 100s
**.HA71.app[0].localPort = 1234
**.HA71.app[0].destPort = 5678
**.HA71.app[0].messageLength = 1024 bytes
**.HA71.app[0].sendInterval = 3 ms
**.HA71.app[0].destAddresses = "172.182.4.1"

**.HA172.numApps = 1
**.HA172.app[*].typename = "UdpSink"
**.HA172.app[0].localPort = 5678

**.HA74.numApps = 1
**.HA74.app[*].typename = "UdpBasicApp"
**.HA74.app[0].startTime = 100s
**.HA74.app[0].localPort = 1234
**.HA74.app[0].destPort = 5678
**.HA74.app[0].messageLength = 1024 bytes
**.HA74.app[0].sendInterval = 3 ms
**.HA74.app[0].destAddresses = "172.183.4.1"

**.HA173.numApps = 1
**.HA173.app[*].typename = "UdpSink"
**.HA173.app[0].localPort = 5678

**.HA76.numApps = 1
**.HA76.app[*].typename = "UdpBasicApp"
**.HA76.app[0].startTime = 100s
**.HA76.app[0].localPort = 1234
**.HA76.app[0].destPort = 5678
**.HA76.app[0].messageLength = 1024 bytes
**.HA76.app[0].sendInterval = 3 ms
**.HA76.app[0].destAddresses = "172.184.4.1"

**.HA174.numApps = 1
**.HA174.app[*].typename = "UdpSink"
**.HA174.app[0].localPort = 5678

**.HA79.numApps = 1
**.HA79.app[*].typename = "UdpBasicApp"
**.HA79.app[0].startTime = 100s
**.HA79.app[0].localPort = 1234
**.HA79.app[0].destPort = 5678
**.HA79.app[0].messageLength = 1024 bytes
**.HA79.app[0].sendInterval = 3 ms
**.HA79.app[0].destAddresses = "172.185.4.1"

**.HA175.numApps = 1
**.HA175.app[*].typename = "UdpSink"
**.HA175.app[0].localPort = 5678

